64
Energy = -223.7941562412
Pb    1.0060544   -1.7425373  -13.0130093 
Pb    1.0060544    1.7425373  -13.0130093 
Pb    1.0060544   -5.2276121  -13.0130093 
Pb    1.0060544    5.2276121  -13.0130093 
Pb   -2.0121088    0.0000000  -13.0130093 
Pb   -2.0121088   -3.4850748  -13.0130093 
Pb   -2.0121088    3.4850748  -13.0130093 
Pb    4.0242176    0.0000000  -13.0130093 
Pb    4.0242176   -3.4850748  -13.0130093 
Pb    4.0242176    3.4850748  -13.0130093 
Pb   -5.0302722   -1.7425373  -13.0130093 
Pb   -5.0302722    1.7425373  -13.0130093 
Pb    0.0000000    0.0000000  -10.1674577 
Pb    0.0000000   -3.4850758  -10.1674577 
Pb    0.0000000    3.4850758  -10.1674577 
Pb   -3.0181641   -1.7425378  -10.1674577 
Pb   -3.0181641    1.7425378  -10.1674577 
Pb    3.0181641   -1.7425378  -10.1674577 
Pb    3.0181641    1.7425378  -10.1674577 
Pb    3.0181641   -5.2276136  -10.1674577 
Pb    3.0181641    5.2276136  -10.1674577 
Pb   -6.0363283    0.0000000  -10.1674577 
Pb   -1.0700343   -1.8632924   -6.9520182 
Pb   -1.0719069    1.8460827   -6.9496405 
Pb    2.1416266   -0.0101980   -6.9507825 
Pb    1.8322558   -3.1796635   -7.2316689 
Pb    1.8276590    3.1597115   -7.2265829 
Pb   -3.6602054   -0.0060368   -7.2292742 
Pb    1.0104280   -1.7661760   -4.2559775 
Pb    1.0133171    1.7396079   -4.2553801 
Pb   -2.0242176   -0.0157612   -4.2557086 
Pb   -0.0001582   -0.0088902   -1.8547733 
Pb    0.0004433    0.0088796    1.5358757 
Pb   -1.0136232   -1.7384783    3.9363489 
Pb   -1.0103507    1.7672819    3.9367451 
Pb    2.0242657    0.0170434    3.9366671 
Pb    1.0718565   -1.8453230    6.6305303 
Pb    1.0698284    1.8641049    6.6329052 
Pb   -2.1416703    0.0111811    6.6316051 
Pb   -1.8276724   -3.1590146    6.9069245 
Pb   -1.8326461    3.1808328    6.9127777 
Pb    3.6604207    0.0066021    6.9098904 
Pb    0.0000000    0.0000000    9.8478346 
Pb    0.0000000   -3.4850758    9.8478346 
Pb    0.0000000    3.4850758    9.8478346 
Pb   -3.0181641   -1.7425378    9.8478346 
Pb   -3.0181641    1.7425378    9.8478346 
Pb    3.0181641   -1.7425378    9.8478346 
Pb    3.0181641    1.7425378    9.8478346 
Pb   -3.0181641   -5.2276136    9.8478346 
Pb   -3.0181641    5.2276136    9.8478346 
Pb    6.0363283    0.0000000    9.8478346 
Pb   -1.0060544   -1.7425373   12.6933863 
Pb   -1.0060544    1.7425373   12.6933863 
Pb   -1.0060544   -5.2276121   12.6933863 
Pb   -1.0060544    5.2276121   12.6933863 
Pb    2.0121088    0.0000000   12.6933863 
Pb    2.0121088   -3.4850748   12.6933863 
Pb    2.0121088    3.4850748   12.6933863 
Pb   -4.0242176    0.0000000   12.6933863 
Pb   -4.0242176   -3.4850748   12.6933863 
Pb   -4.0242176    3.4850748   12.6933863 
Pb    5.0302722   -1.7425373   12.6933863 
Pb    5.0302722    1.7425373   12.6933863 
64
Energy = -223.7937972109

64
Energy = -223.8245622641
Pb    1.0060544   -1.7425373  -13.0130093 
Pb    1.0060544    1.7425373  -13.0130093 
Pb    1.0060544   -5.2276121  -13.0130093 
Pb    1.0060544    5.2276121  -13.0130093 
Pb   -2.0121088    0.0000000  -13.0130093 
Pb   -2.0121088   -3.4850748  -13.0130093 
Pb   -2.0121088    3.4850748  -13.0130093 
Pb    4.0242176    0.0000000  -13.0130093 
Pb    4.0242176   -3.4850748  -13.0130093 
Pb    4.0242176    3.4850748  -13.0130093 
Pb   -5.0302722   -1.7425373  -13.0130093 
Pb   -5.0302722    1.7425373  -13.0130093 
Pb    0.0000000    0.0000000  -10.1674577 
Pb    0.0000000   -3.4850758  -10.1674577 
Pb    0.0000000    3.4850758  -10.1674577 
Pb   -3.0181641   -1.7425378  -10.1674577 
Pb   -3.0181641    1.7425378  -10.1674577 
Pb    3.0181641   -1.7425378  -10.1674577 
Pb    3.0181641    1.7425378  -10.1674577 
Pb    3.0181641   -5.2276136  -10.1674577 
Pb    3.0181641    5.2276136  -10.1674577 
Pb   -6.0363283    0.0000000  -10.1674577 
Pb   -1.0234271   -1.7842910   -6.9236560 
Pb   -1.1128370    1.7066528   -7.0902989 
Pb    2.0414294   -0.1076869   -7.0932228 
Pb    2.0996083   -3.6250039   -7.5848626 
Pb    1.9341214    3.3521510   -7.5694807 
Pb   -4.1859979    0.0066401   -7.5850874 
Pb    1.6414201   -2.4383396   -4.5289593 
Pb    0.2754326    0.4704244   -4.2901974 
Pb   -2.9242329    0.1727974   -4.5269839 
Pb   -1.3287413   -2.3360223   -3.6131447 
Pb    1.3375108   -2.3279330    2.6534499 
Pb   -1.6325116   -2.4391483    3.5693710 
Pb   -0.2745355    0.4735294    3.3317636 
Pb    2.9259718    0.1847468    3.5691601 
Pb    1.0263571   -1.7814425    5.9644121 
Pb    1.1128923    1.7101774    6.1329240 
Pb   -2.0395889   -0.1077768    6.1336983 
Pb   -2.0994381   -3.6236329    6.6260971 
Pb   -1.9350955    3.3524588    6.6105630 
Pb    4.1868784    0.0063590    6.6261716 
Pb    0.0000000    0.0000000    9.2085886 
Pb    0.0000000   -3.4850758    9.2085886 
Pb    0.0000000    3.4850758    9.2085886 
Pb   -3.0181641   -1.7425378    9.2085886 
Pb   -3.0181641    1.7425378    9.2085886 
Pb    3.0181641   -1.7425378    9.2085886 
Pb    3.0181641    1.7425378    9.2085886 
Pb   -3.0181641   -5.2276136    9.2085886 
Pb   -3.0181641    5.2276136    9.2085886 
Pb    6.0363283    0.0000000    9.2085886 
Pb   -1.0060544   -1.7425373   12.0541402 
Pb   -1.0060544    1.7425373   12.0541402 
Pb   -1.0060544   -5.2276121   12.0541402 
Pb   -1.0060544    5.2276121   12.0541402 
Pb    2.0121088    0.0000000   12.0541402 
Pb    2.0121088   -3.4850748   12.0541402 
Pb    2.0121088    3.4850748   12.0541402 
Pb   -4.0242176    0.0000000   12.0541402 
Pb   -4.0242176   -3.4850748   12.0541402 
Pb   -4.0242176    3.4850748   12.0541402 
Pb    5.0302722   -1.7425373   12.0541402 
Pb    5.0302722    1.7425373   12.0541402 
64
Energy = -223.8148467573
Pb    1.0060544   -1.7425373  -13.0130093 
Pb    1.0060544    1.7425373  -13.0130093 
Pb    1.0060544   -5.2276121  -13.0130093 
Pb    1.0060544    5.2276121  -13.0130093 
Pb   -2.0121088    0.0000000  -13.0130093 
Pb   -2.0121088   -3.4850748  -13.0130093 
Pb   -2.0121088    3.4850748  -13.0130093 
Pb    4.0242176    0.0000000  -13.0130093 
Pb    4.0242176   -3.4850748  -13.0130093 
Pb    4.0242176    3.4850748  -13.0130093 
Pb   -5.0302722   -1.7425373  -13.0130093 
Pb   -5.0302722    1.7425373  -13.0130093 
Pb    0.0000000    0.0000000  -10.1674577 
Pb    0.0000000   -3.4850758  -10.1674577 
Pb    0.0000000    3.4850758  -10.1674577 
Pb   -3.0181641   -1.7425378  -10.1674577 
Pb   -3.0181641    1.7425378  -10.1674577 
Pb    3.0181641   -1.7425378  -10.1674577 
Pb    3.0181641    1.7425378  -10.1674577 
Pb    3.0181641   -5.2276136  -10.1674577 
Pb    3.0181641    5.2276136  -10.1674577 
Pb   -6.0363283    0.0000000  -10.1674577 
Pb   -1.3554535   -1.3986616   -6.5841391 
Pb   -1.2078346    2.0315864   -7.0991200 
Pb    1.8177576   -0.0555038   -7.0683520 
Pb    1.9682325   -3.4735361   -7.5931090 
Pb    1.9520138    3.3604503   -7.5257589 
Pb   -4.1657512    0.0998552   -7.4368371 
Pb    1.0315176   -2.1624452   -4.4601673 
Pb    0.2927568    1.0091622   -4.2276019 
Pb   -2.9505896    1.0408223   -4.4277830 
Pb   -1.6195732   -1.3647288   -2.9387545 
Pb   -1.0924555   -0.5269698    0.3640532 
Pb   -3.2158346   -0.4004946    2.5118717 
Pb   -1.6494316    2.2671535    3.0390716 
Pb    0.3669001   -0.2559779    3.0264445 
Pb    0.9090094   -1.7171140    5.8692290 
Pb    0.8553442    1.8275938    5.6561503 
Pb   -2.2061256    0.1054294    5.6874452 
Pb   -2.0290566   -3.3754563    6.2632761 
Pb   -1.9675465    3.5205835    6.1886338 
Pb    3.8553441    0.0404318    6.3013812 
Pb    0.0000000    0.0000000    8.8889656 
Pb    0.0000000   -3.4850758    8.8889656 
Pb    0.0000000    3.4850758    8.8889656 
Pb   -3.0181641   -1.7425378    8.8889656 
Pb   -3.0181641    1.7425378    8.8889656 
Pb    3.0181641   -1.7425378    8.8889656 
Pb    3.0181641    1.7425378    8.8889656 
Pb   -3.0181641   -5.2276136    8.8889656 
Pb   -3.0181641    5.2276136    8.8889656 
Pb    6.0363283    0.0000000    8.8889656 
Pb   -1.0060544   -1.7425373   11.7345172 
Pb   -1.0060544    1.7425373   11.7345172 
Pb   -1.0060544   -5.2276121   11.7345172 
Pb   -1.0060544    5.2276121   11.7345172 
Pb    2.0121088    0.0000000   11.7345172 
Pb    2.0121088   -3.4850748   11.7345172 
Pb    2.0121088    3.4850748   11.7345172 
Pb   -4.0242176    0.0000000   11.7345172 
Pb   -4.0242176   -3.4850748   11.7345172 
Pb   -4.0242176    3.4850748   11.7345172 
Pb    5.0302722   -1.7425373   11.7345172 
Pb    5.0302722    1.7425373   11.7345172 
64
Energy = -223.8311624291
Pb    1.0060544   -1.7425373  -13.0130093 
Pb    1.0060544    1.7425373  -13.0130093 
Pb    1.0060544   -5.2276121  -13.0130093 
Pb    1.0060544    5.2276121  -13.0130093 
Pb   -2.0121088    0.0000000  -13.0130093 
Pb   -2.0121088   -3.4850748  -13.0130093 
Pb   -2.0121088    3.4850748  -13.0130093 
Pb    4.0242176    0.0000000  -13.0130093 
Pb    4.0242176   -3.4850748  -13.0130093 
Pb    4.0242176    3.4850748  -13.0130093 
Pb   -5.0302722   -1.7425373  -13.0130093 
Pb   -5.0302722    1.7425373  -13.0130093 
Pb    0.0000000    0.0000000  -10.1674577 
Pb    0.0000000   -3.4850758  -10.1674577 
Pb    0.0000000    3.4850758  -10.1674577 
Pb   -3.0181641   -1.7425378  -10.1674577 
Pb   -3.0181641    1.7425378  -10.1674577 
Pb    3.0181641   -1.7425378  -10.1674577 
Pb    3.0181641    1.7425378  -10.1674577 
Pb    3.0181641   -5.2276136  -10.1674577 
Pb    3.0181641    5.2276136  -10.1674577 
Pb   -6.0363283    0.0000000  -10.1674577 
Pb   -1.1053318   -1.9153685   -6.9898325 
Pb   -1.0475330    1.7453572   -6.9022240 
Pb    2.0358554   -0.0348231   -6.9029077 
Pb    1.9077063   -3.3506257   -7.4248206 
Pb    1.8978321    3.2868740   -7.4639620 
Pb   -3.8549175   -0.0233607   -7.4247441 
Pb    0.9181441   -1.9412296   -4.2716344 
Pb    0.7482917    1.2947751   -3.8948009 
Pb   -2.1388197   -0.1769824   -4.2714157 
Pb   -0.7138013   -1.2383164   -1.6246516 
Pb    0.7138398    1.2330823   -0.2929579 
Pb   -0.7490973   -1.2994111    1.9779592 
Pb   -0.9186928    1.9368777    2.3534090 
Pb    2.1382028    0.1719443    2.3540187 
Pb    1.0468431   -1.7477779    4.9856967 
Pb    1.1050731    1.9134196    5.0715728 
Pb   -2.0364666    0.0325920    4.9851473 
Pb   -1.8989038   -3.2889479    5.5463737 
Pb   -1.9072887    3.3487472    5.5067150 
Pb    3.8543043    0.0224192    5.5068455 
Pb    0.0000000    0.0000000    8.2497195 
Pb    0.0000000   -3.4850758    8.2497195 
Pb    0.0000000    3.4850758    8.2497195 
Pb   -3.0181641   -1.7425378    8.2497195 
Pb   -3.0181641    1.7425378    8.2497195 
Pb    3.0181641   -1.7425378    8.2497195 
Pb    3.0181641    1.7425378    8.2497195 
Pb   -3.0181641   -5.2276136    8.2497195 
Pb   -3.0181641    5.2276136    8.2497195 
Pb    6.0363283    0.0000000    8.2497195 
Pb   -1.0060544   -1.7425373   11.0952711 
Pb   -1.0060544    1.7425373   11.0952711 
Pb   -1.0060544   -5.2276121   11.0952711 
Pb   -1.0060544    5.2276121   11.0952711 
Pb    2.0121088    0.0000000   11.0952711 
Pb    2.0121088   -3.4850748   11.0952711 
Pb    2.0121088    3.4850748   11.0952711 
Pb   -4.0242176    0.0000000   11.0952711 
Pb   -4.0242176   -3.4850748   11.0952711 
Pb   -4.0242176    3.4850748   11.0952711 
Pb    5.0302722   -1.7425373   11.0952711 
Pb    5.0302722    1.7425373   11.0952711 
64
Energy = -223.8372128393
Pb    1.0060544   -1.7425373  -13.0130093 
Pb    1.0060544    1.7425373  -13.0130093 
Pb    1.0060544   -5.2276121  -13.0130093 
Pb    1.0060544    5.2276121  -13.0130093 
Pb   -2.0121088    0.0000000  -13.0130093 
Pb   -2.0121088   -3.4850748  -13.0130093 
Pb   -2.0121088    3.4850748  -13.0130093 
Pb    4.0242176    0.0000000  -13.0130093 
Pb    4.0242176   -3.4850748  -13.0130093 
Pb    4.0242176    3.4850748  -13.0130093 
Pb   -5.0302722   -1.7425373  -13.0130093 
Pb   -5.0302722    1.7425373  -13.0130093 
Pb    0.0000000    0.0000000  -10.1674577 
Pb    0.0000000   -3.4850758  -10.1674577 
Pb    0.0000000    3.4850758  -10.1674577 
Pb   -3.0181641   -1.7425378  -10.1674577 
Pb   -3.0181641    1.7425378  -10.1674577 
Pb    3.0181641   -1.7425378  -10.1674577 
Pb    3.0181641    1.7425378  -10.1674577 
Pb    3.0181641   -5.2276136  -10.1674577 
Pb    3.0181641    5.2276136  -10.1674577 
Pb   -6.0363283    0.0000000  -10.1674577 
Pb   -1.1019424   -1.9074062   -7.0381403 
Pb   -1.0545384    1.7465380   -6.9632295 
Pb    2.0389061   -0.0400454   -6.9628122 
Pb    1.9177687   -3.3740567   -7.4397541 
Pb    1.9032149    3.2963240   -7.4695212 
Pb   -3.8817534   -0.0256282   -7.4400094 
Pb    0.9136485   -1.9509805   -4.3244425 
Pb    0.7422781    1.2878472   -3.9827646 
Pb   -2.1479078   -0.1841157   -4.3251731 
Pb   -0.7351345   -1.2691935   -1.6938186 
Pb    0.7373846    1.2710700   -0.5438836 
Pb   -0.7404527   -1.2856021    1.7453171 
Pb   -0.9107912    1.9532845    2.0870441 
Pb    2.1499476    0.1857773    2.0878081 
Pb    1.0557146   -1.7455672    4.7255355 
Pb    1.1033008    1.9082404    4.8010872 
Pb   -2.0376990    0.0413926    4.7249104 
Pb   -1.9021857   -3.2948149    5.2319329 
Pb   -1.9171124    3.3747930    5.2024645 
Pb    3.8829470    0.0257378    5.2026921 
Pb    0.0000000    0.0000000    7.9300965 
Pb    0.0000000   -3.4850758    7.9300965 
Pb    0.0000000    3.4850758    7.9300965 
Pb   -3.0181641   -1.7425378    7.9300965 
Pb   -3.0181641    1.7425378    7.9300965 
Pb    3.0181641   -1.7425378    7.9300965 
Pb    3.0181641    1.7425378    7.9300965 
Pb   -3.0181641   -5.2276136    7.9300965 
Pb   -3.0181641    5.2276136    7.9300965 
Pb    6.0363283    0.0000000    7.9300965 
Pb   -1.0060544   -1.7425373   10.7756481 
Pb   -1.0060544    1.7425373   10.7756481 
Pb   -1.0060544   -5.2276121   10.7756481 
Pb   -1.0060544    5.2276121   10.7756481 
Pb    2.0121088    0.0000000   10.7756481 
Pb    2.0121088   -3.4850748   10.7756481 
Pb    2.0121088    3.4850748   10.7756481 
Pb   -4.0242176    0.0000000   10.7756481 
Pb   -4.0242176   -3.4850748   10.7756481 
Pb   -4.0242176    3.4850748   10.7756481 
Pb    5.0302722   -1.7425373   10.7756481 
Pb    5.0302722    1.7425373   10.7756481 
64
Energy = -223.8411505736
Pb    1.0060544   -1.7425373  -13.0130093 
Pb    1.0060544    1.7425373  -13.0130093 
Pb    1.0060544   -5.2276121  -13.0130093 
Pb    1.0060544    5.2276121  -13.0130093 
Pb   -2.0121088    0.0000000  -13.0130093 
Pb   -2.0121088   -3.4850748  -13.0130093 
Pb   -2.0121088    3.4850748  -13.0130093 
Pb    4.0242176    0.0000000  -13.0130093 
Pb    4.0242176   -3.4850748  -13.0130093 
Pb    4.0242176    3.4850748  -13.0130093 
Pb   -5.0302722   -1.7425373  -13.0130093 
Pb   -5.0302722    1.7425373  -13.0130093 
Pb    0.0000000    0.0000000  -10.1674577 
Pb    0.0000000   -3.4850758  -10.1674577 
Pb    0.0000000    3.4850758  -10.1674577 
Pb   -3.0181641   -1.7425378  -10.1674577 
Pb   -3.0181641    1.7425378  -10.1674577 
Pb    3.0181641   -1.7425378  -10.1674577 
Pb    3.0181641    1.7425378  -10.1674577 
Pb    3.0181641   -5.2276136  -10.1674577 
Pb    3.0181641    5.2276136  -10.1674577 
Pb   -6.0363283    0.0000000  -10.1674577 
Pb   -1.0965125   -1.8967816   -7.0885561 
Pb   -1.0624661    1.7549728   -7.0310883 
Pb    2.0495426   -0.0429325   -7.0303423 
Pb    1.9261304   -3.3964723   -7.4527557 
Pb    1.9079408    3.3041453   -7.4706335 
Pb   -3.9058240   -0.0287756   -7.4529943 
Pb    0.9207900   -1.9546899   -4.3864573 
Pb    0.7440602    1.2909027   -4.1029391 
Pb   -2.1559147   -0.1773253   -4.3873260 
Pb   -0.7505154   -1.2936973   -1.7844410 
Pb    0.7471331    1.2898293   -0.7722303 
Pb   -0.7472618   -1.2948184    1.5463159 
Pb   -0.9243746    1.9508342    1.8295078 
Pb    2.1526280    0.1735289    1.8302924 
Pb    1.0606354   -1.7569413    4.4746375 
Pb    1.0948201    1.8951887    4.5310087 
Pb   -2.0512804    0.0408538    4.4740332 
Pb   -1.9095158   -3.3063874    4.9138903 
Pb   -1.9267356    3.3950985    4.8956514 
Pb    3.9039764    0.0279968    4.8958422 
Pb    0.0000000    0.0000000    7.6104734 
Pb    0.0000000   -3.4850758    7.6104734 
Pb    0.0000000    3.4850758    7.6104734 
Pb   -3.0181641   -1.7425378    7.6104734 
Pb   -3.0181641    1.7425378    7.6104734 
Pb    3.0181641   -1.7425378    7.6104734 
Pb    3.0181641    1.7425378    7.6104734 
Pb   -3.0181641   -5.2276136    7.6104734 
Pb   -3.0181641    5.2276136    7.6104734 
Pb    6.0363283    0.0000000    7.6104734 
Pb   -1.0060544   -1.7425373   10.4560251 
Pb   -1.0060544    1.7425373   10.4560251 
Pb   -1.0060544   -5.2276121   10.4560251 
Pb   -1.0060544    5.2276121   10.4560251 
Pb    2.0121088    0.0000000   10.4560251 
Pb    2.0121088   -3.4850748   10.4560251 
Pb    2.0121088    3.4850748   10.4560251 
Pb   -4.0242176    0.0000000   10.4560251 
Pb   -4.0242176   -3.4850748   10.4560251 
Pb   -4.0242176    3.4850748   10.4560251 
Pb    5.0302722   -1.7425373   10.4560251 
Pb    5.0302722    1.7425373   10.4560251 
64
Energy = -223.8424424182
Pb    1.0060544   -1.7425373  -13.0130093 
Pb    1.0060544    1.7425373  -13.0130093 
Pb    1.0060544   -5.2276121  -13.0130093 
Pb    1.0060544    5.2276121  -13.0130093 
Pb   -2.0121088    0.0000000  -13.0130093 
Pb   -2.0121088   -3.4850748  -13.0130093 
Pb   -2.0121088    3.4850748  -13.0130093 
Pb    4.0242176    0.0000000  -13.0130093 
Pb    4.0242176   -3.4850748  -13.0130093 
Pb    4.0242176    3.4850748  -13.0130093 
Pb   -5.0302722   -1.7425373  -13.0130093 
Pb   -5.0302722    1.7425373  -13.0130093 
Pb    0.0000000    0.0000000  -10.1674577 
Pb    0.0000000   -3.4850758  -10.1674577 
Pb    0.0000000    3.4850758  -10.1674577 
Pb   -3.0181641   -1.7425378  -10.1674577 
Pb   -3.0181641    1.7425378  -10.1674577 
Pb    3.0181641   -1.7425378  -10.1674577 
Pb    3.0181641    1.7425378  -10.1674577 
Pb    3.0181641   -5.2276136  -10.1674577 
Pb    3.0181641    5.2276136  -10.1674577 
Pb   -6.0363283    0.0000000  -10.1674577 
Pb   -1.0800400   -1.8781639   -7.1339685 
Pb   -1.0655029    1.7745814   -7.1001233 
Pb    2.0744818   -0.0355482   -7.1031586 
Pb    1.9378867   -3.4126630   -7.4637331 
Pb    1.9157077    3.3184078   -7.4677410 
Pb   -3.9188932   -0.0316900   -7.4622369 
Pb    0.9527348   -1.9395278   -4.4508335 
Pb    0.7664921    1.3161963   -4.2395406 
Pb   -2.1459401   -0.1497776   -4.4467515 
Pb   -0.7460373   -1.3151633   -1.8814920 
Pb    0.7442512    1.3123960   -0.9950886 
Pb   -0.7676950   -1.3183877    1.3630266 
Pb   -0.9541193    1.9375123    1.5741397 
Pb    2.1447513    0.1479930    1.5700978 
Pb    1.0649082   -1.7755806    4.2236448 
Pb    1.0794192    1.8772384    4.2571560 
Pb   -2.0751441    0.0344799    4.2266948 
Pb   -1.9162880   -3.3194400    4.5911259 
Pb   -1.9381550    3.4118655    4.5870797 
Pb    3.9183505    0.0312869    4.5856640 
Pb    0.0000000    0.0000000    7.2908504 
Pb    0.0000000   -3.4850758    7.2908504 
Pb    0.0000000    3.4850758    7.2908504 
Pb   -3.0181641   -1.7425378    7.2908504 
Pb   -3.0181641    1.7425378    7.2908504 
Pb    3.0181641   -1.7425378    7.2908504 
Pb    3.0181641    1.7425378    7.2908504 
Pb   -3.0181641   -5.2276136    7.2908504 
Pb   -3.0181641    5.2276136    7.2908504 
Pb    6.0363283    0.0000000    7.2908504 
Pb   -1.0060544   -1.7425373   10.1364021 
Pb   -1.0060544    1.7425373   10.1364021 
Pb   -1.0060544   -5.2276121   10.1364021 
Pb   -1.0060544    5.2276121   10.1364021 
Pb    2.0121088    0.0000000   10.1364021 
Pb    2.0121088   -3.4850748   10.1364021 
Pb    2.0121088    3.4850748   10.1364021 
Pb   -4.0242176    0.0000000   10.1364021 
Pb   -4.0242176   -3.4850748   10.1364021 
Pb   -4.0242176    3.4850748   10.1364021 
Pb    5.0302722   -1.7425373   10.1364021 
Pb    5.0302722    1.7425373   10.1364021 
64
Energy = -223.8476427083
Pb    1.0060544   -1.7425373  -13.0130093 
Pb    1.0060544    1.7425373  -13.0130093 
Pb    1.0060544   -5.2276121  -13.0130093 
Pb    1.0060544    5.2276121  -13.0130093 
Pb   -2.0121088    0.0000000  -13.0130093 
Pb   -2.0121088   -3.4850748  -13.0130093 
Pb   -2.0121088    3.4850748  -13.0130093 
Pb    4.0242176    0.0000000  -13.0130093 
Pb    4.0242176   -3.4850748  -13.0130093 
Pb    4.0242176    3.4850748  -13.0130093 
Pb   -5.0302722   -1.7425373  -13.0130093 
Pb   -5.0302722    1.7425373  -13.0130093 
Pb    0.0000000    0.0000000  -10.1674577 
Pb    0.0000000   -3.4850758  -10.1674577 
Pb    0.0000000    3.4850758  -10.1674577 
Pb   -3.0181641   -1.7425378  -10.1674577 
Pb   -3.0181641    1.7425378  -10.1674577 
Pb    3.0181641   -1.7425378  -10.1674577 
Pb    3.0181641    1.7425378  -10.1674577 
Pb    3.0181641   -5.2276136  -10.1674577 
Pb    3.0181641    5.2276136  -10.1674577 
Pb   -6.0363283    0.0000000  -10.1674577 
Pb   -1.0560188   -1.8318921   -7.1472831 
Pb   -1.0406581    1.8744084   -7.0970473 
Pb    2.1461362    0.0342505   -7.0980464 
Pb    1.9583399   -3.3660939   -7.4514456 
Pb    1.9530582    3.3809391   -7.4246956 
Pb   -3.8908222    0.0123829   -7.4506963 
Pb    0.9744723   -1.7235828   -4.4851072 
Pb    0.9250650    1.5957102   -4.2894592 
Pb   -1.9738468   -0.0201704   -4.4835922 
Pb   -0.2187407   -0.3907258   -1.5937551 
Pb    1.3500887    2.3208938   -0.9095582 
Pb   -1.0062658   -1.7543571    1.2097578 
Pb   -1.1178342    1.5550668    1.0408738 
Pb    1.9154142   -0.1974025    1.0429160 
Pb    1.0810772   -1.7846610    3.9692593 
Pb    1.0530143    1.8204066    3.8336837 
Pb   -2.0822653    0.0415149    3.9673210 
Pb   -1.9267588   -3.3399138    4.2369760 
Pb   -1.9354534    3.3974742    4.2743227 
Pb    3.9124695    0.0224905    4.2731286 
Pb    0.0000000    0.0000000    6.9712274 
Pb    0.0000000   -3.4850758    6.9712274 
Pb    0.0000000    3.4850758    6.9712274 
Pb   -3.0181641   -1.7425378    6.9712274 
Pb   -3.0181641    1.7425378    6.9712274 
Pb    3.0181641   -1.7425378    6.9712274 
Pb    3.0181641    1.7425378    6.9712274 
Pb   -3.0181641   -5.2276136    6.9712274 
Pb   -3.0181641    5.2276136    6.9712274 
Pb    6.0363283    0.0000000    6.9712274 
Pb   -1.0060544   -1.7425373    9.8167790 
Pb   -1.0060544    1.7425373    9.8167790 
Pb   -1.0060544   -5.2276121    9.8167790 
Pb   -1.0060544    5.2276121    9.8167790 
Pb    2.0121088    0.0000000    9.8167790 
Pb    2.0121088   -3.4850748    9.8167790 
Pb    2.0121088    3.4850748    9.8167790 
Pb   -4.0242176    0.0000000    9.8167790 
Pb   -4.0242176   -3.4850748    9.8167790 
Pb   -4.0242176    3.4850748    9.8167790 
Pb    5.0302722   -1.7425373    9.8167790 
Pb    5.0302722    1.7425373    9.8167790 
64
Energy = -223.8476345842
Pb    1.0060544   -1.7425373  -13.0130093 
Pb    1.0060544    1.7425373  -13.0130093 
Pb    1.0060544   -5.2276121  -13.0130093 
Pb    1.0060544    5.2276121  -13.0130093 
Pb   -2.0121088    0.0000000  -13.0130093 
Pb   -2.0121088   -3.4850748  -13.0130093 
Pb   -2.0121088    3.4850748  -13.0130093 
Pb    4.0242176    0.0000000  -13.0130093 
Pb    4.0242176   -3.4850748  -13.0130093 
Pb    4.0242176    3.4850748  -13.0130093 
Pb   -5.0302722   -1.7425373  -13.0130093 
Pb   -5.0302722    1.7425373  -13.0130093 
Pb    0.0000000    0.0000000  -10.1674577 
Pb    0.0000000   -3.4850758  -10.1674577 
Pb    0.0000000    3.4850758  -10.1674577 
Pb   -3.0181641   -1.7425378  -10.1674577 
Pb   -3.0181641    1.7425378  -10.1674577 
Pb    3.0181641   -1.7425378  -10.1674577 
Pb    3.0181641    1.7425378  -10.1674577 
Pb    3.0181641   -5.2276136  -10.1674577 
Pb    3.0181641    5.2276136  -10.1674577 
Pb   -6.0363283    0.0000000  -10.1674577 
Pb   -1.0505937   -1.8213851   -7.1840970 
Pb   -1.0368535    1.8912918   -7.1522925 
Pb    2.1574968    0.0477173   -7.1528057 
Pb    1.9702654   -3.3768947   -7.4652313 
Pb    1.9643006    3.4023253   -7.4268452 
Pb   -3.9077539    0.0168418   -7.4647334 
Pb    1.0092924   -1.7107706   -4.5532977 
Pb    0.9462728    1.6369629   -4.3772178 
Pb   -1.9830696    0.0163628   -4.5523103 
Pb   -0.2087181   -0.3687851   -1.7657528 
Pb    1.3691173    2.3607878   -1.0509772 
Pb   -1.0308043   -1.7924674    0.9685494 
Pb   -1.1432721    1.5573823    0.8163782 
Pb    1.9264637   -0.2159329    0.8174876 
Pb    1.0642613   -1.8054552    3.6974192 
Pb    1.0536610    1.8224027    3.5569324 
Pb   -2.0933706    0.0176639    3.6961222 
Pb   -1.9512417   -3.3809103    3.9329469 
Pb   -1.9473923    3.3958732    3.9565356 
Pb    3.9160015    0.0110453    3.9557446 
Pb    0.0000000    0.0000000    6.6516044 
Pb    0.0000000   -3.4850758    6.6516044 
Pb    0.0000000    3.4850758    6.6516044 
Pb   -3.0181641   -1.7425378    6.6516044 
Pb   -3.0181641    1.7425378    6.6516044 
Pb    3.0181641   -1.7425378    6.6516044 
Pb    3.0181641    1.7425378    6.6516044 
Pb   -3.0181641   -5.2276136    6.6516044 
Pb   -3.0181641    5.2276136    6.6516044 
Pb    6.0363283    0.0000000    6.6516044 
Pb   -1.0060544   -1.7425373    9.4971560 
Pb   -1.0060544    1.7425373    9.4971560 
Pb   -1.0060544   -5.2276121    9.4971560 
Pb   -1.0060544    5.2276121    9.4971560 
Pb    2.0121088    0.0000000    9.4971560 
Pb    2.0121088   -3.4850748    9.4971560 
Pb    2.0121088    3.4850748    9.4971560 
Pb   -4.0242176    0.0000000    9.4971560 
Pb   -4.0242176   -3.4850748    9.4971560 
Pb   -4.0242176    3.4850748    9.4971560 
Pb    5.0302722   -1.7425373    9.4971560 
Pb    5.0302722    1.7425373    9.4971560 
64
Energy = -223.8450270281
Pb    1.0060544   -1.7425373  -13.0130093 
Pb    1.0060544    1.7425373  -13.0130093 
Pb    1.0060544   -5.2276121  -13.0130093 
Pb    1.0060544    5.2276121  -13.0130093 
Pb   -2.0121088    0.0000000  -13.0130093 
Pb   -2.0121088   -3.4850748  -13.0130093 
Pb   -2.0121088    3.4850748  -13.0130093 
Pb    4.0242176    0.0000000  -13.0130093 
Pb    4.0242176   -3.4850748  -13.0130093 
Pb    4.0242176    3.4850748  -13.0130093 
Pb   -5.0302722   -1.7425373  -13.0130093 
Pb   -5.0302722    1.7425373  -13.0130093 
Pb    0.0000000    0.0000000  -10.1674577 
Pb    0.0000000   -3.4850758  -10.1674577 
Pb    0.0000000    3.4850758  -10.1674577 
Pb   -3.0181641   -1.7425378  -10.1674577 
Pb   -3.0181641    1.7425378  -10.1674577 
Pb    3.0181641   -1.7425378  -10.1674577 
Pb    3.0181641    1.7425378  -10.1674577 
Pb    3.0181641   -5.2276136  -10.1674577 
Pb    3.0181641    5.2276136  -10.1674577 
Pb   -6.0363283    0.0000000  -10.1674577 
Pb   -1.0414327   -1.8053396   -7.2066891 
Pb   -1.0212847    1.9169851   -7.1996869 
Pb    2.1721475    0.0735992   -7.2000974 
Pb    1.9864010   -3.3891417   -7.4839871 
Pb    1.9810022    3.4306941   -7.4254453 
Pb   -3.9268053    0.0251309   -7.4837151 
Pb    1.0688444   -1.6906915   -4.6164776 
Pb    0.9760520    1.6880876   -4.4447027 
Pb   -1.9960021    0.0789095   -4.6156820 
Pb   -0.2150382   -0.3772718   -1.9239914 
Pb    1.3795595    2.3854731   -1.1434202 
Pb   -1.0884776   -1.8885120    0.7197543 
Pb   -1.2056468    1.5322511    0.5727931 
Pb    1.9327354   -0.2793824    0.5736675 
Pb    1.0311397   -1.8315154    3.4177125 
Pb    1.0464840    1.8118120    3.2538131 
Pb   -2.1008086   -0.0233532    3.4171107 
Pb   -1.9842769   -3.4374779    3.6250496 
Pb   -1.9711404    3.3952027    3.6509632 
Pb    3.9265576   -0.0095146    3.6507809 
Pb    0.0000000    0.0000000    6.3319812 
Pb    0.0000000   -3.4850758    6.3319812 
Pb    0.0000000    3.4850758    6.3319812 
Pb   -3.0181641   -1.7425378    6.3319812 
Pb   -3.0181641    1.7425378    6.3319812 
Pb    3.0181641   -1.7425378    6.3319812 
Pb    3.0181641    1.7425378    6.3319812 
Pb   -3.0181641   -5.2276136    6.3319812 
Pb   -3.0181641    5.2276136    6.3319812 
Pb    6.0363283    0.0000000    6.3319812 
Pb   -1.0060544   -1.7425373    9.1775328 
Pb   -1.0060544    1.7425373    9.1775328 
Pb   -1.0060544   -5.2276121    9.1775328 
Pb   -1.0060544    5.2276121    9.1775328 
Pb    2.0121088    0.0000000    9.1775328 
Pb    2.0121088   -3.4850748    9.1775328 
Pb    2.0121088    3.4850748    9.1775328 
Pb   -4.0242176    0.0000000    9.1775328 
Pb   -4.0242176   -3.4850748    9.1775328 
Pb   -4.0242176    3.4850748    9.1775328 
Pb    5.0302722   -1.7425373    9.1775328 
Pb    5.0302722    1.7425373    9.1775328 
64
Energy = -223.8411000655
Pb    1.0060544   -1.7425373  -13.0130093 
Pb    1.0060544    1.7425373  -13.0130093 
Pb    1.0060544   -5.2276121  -13.0130093 
Pb    1.0060544    5.2276121  -13.0130093 
Pb   -2.0121088    0.0000000  -13.0130093 
Pb   -2.0121088   -3.4850748  -13.0130093 
Pb   -2.0121088    3.4850748  -13.0130093 
Pb    4.0242176    0.0000000  -13.0130093 
Pb    4.0242176   -3.4850748  -13.0130093 
Pb    4.0242176    3.4850748  -13.0130093 
Pb   -5.0302722   -1.7425373  -13.0130093 
Pb   -5.0302722    1.7425373  -13.0130093 
Pb    0.0000000    0.0000000  -10.1674577 
Pb    0.0000000   -3.4850758  -10.1674577 
Pb    0.0000000    3.4850758  -10.1674577 
Pb   -3.0181641   -1.7425378  -10.1674577 
Pb   -3.0181641    1.7425378  -10.1674577 
Pb    3.0181641   -1.7425378  -10.1674577 
Pb    3.0181641    1.7425378  -10.1674577 
Pb    3.0181641   -5.2276136  -10.1674577 
Pb    3.0181641    5.2276136  -10.1674577 
Pb   -6.0363283    0.0000000  -10.1674577 
Pb   -1.0204794   -1.7694346   -7.1964137 
Pb   -0.9940432    1.9463369   -7.2225290 
Pb    2.1833910    0.1103039   -7.2229739 
Pb    2.0029868   -3.4044727   -7.5139604 
Pb    1.9998515    3.4622100   -7.4205768 
Pb   -3.9510531    0.0322342   -7.5162789 
Pb    1.1656666   -1.6691374   -4.6487299 
Pb    1.0068497    1.7396164   -4.4606323 
Pb   -2.0288294    0.1743443   -4.6516192 
Pb   -0.2705502   -0.4602007   -2.0730210 
Pb    1.3703791    2.3882899   -1.1750990 
Pb   -1.2087887   -2.0814652    0.4519082 
Pb   -1.3158709    1.4812328    0.2857413 
Pb    1.9324383   -0.3922304    0.2841716 
Pb    0.9765432   -1.8645631    3.1052630 
Pb    1.0175044    1.7656016    2.9034042 
Pb   -2.1056930   -0.0848590    3.1076119 
Pb   -2.0292786   -3.5133888    3.3192178 
Pb   -2.0075412    3.3985800    3.3678975 
Pb    3.9459931   -0.0385606    3.3698725 
Pb    0.0000000    0.0000000    6.0123582 
Pb    0.0000000   -3.4850758    6.0123582 
Pb    0.0000000    3.4850758    6.0123582 
Pb   -3.0181641   -1.7425378    6.0123582 
Pb   -3.0181641    1.7425378    6.0123582 
Pb    3.0181641   -1.7425378    6.0123582 
Pb    3.0181641    1.7425378    6.0123582 
Pb   -3.0181641   -5.2276136    6.0123582 
Pb   -3.0181641    5.2276136    6.0123582 
Pb    6.0363283    0.0000000    6.0123582 
Pb   -1.0060544   -1.7425373    8.8579098 
Pb   -1.0060544    1.7425373    8.8579098 
Pb   -1.0060544   -5.2276121    8.8579098 
Pb   -1.0060544    5.2276121    8.8579098 
Pb    2.0121088    0.0000000    8.8579098 
Pb    2.0121088   -3.4850748    8.8579098 
Pb    2.0121088    3.4850748    8.8579098 
Pb   -4.0242176    0.0000000    8.8579098 
Pb   -4.0242176   -3.4850748    8.8579098 
Pb   -4.0242176    3.4850748    8.8579098 
Pb    5.0302722   -1.7425373    8.8579098 
Pb    5.0302722    1.7425373    8.8579098 
64
Energy = -223.8538967918
Pb    1.0060544   -1.7425373  -13.0130093 
Pb    1.0060544    1.7425373  -13.0130093 
Pb    1.0060544   -5.2276121  -13.0130093 
Pb    1.0060544    5.2276121  -13.0130093 
Pb   -2.0121088    0.0000000  -13.0130093 
Pb   -2.0121088   -3.4850748  -13.0130093 
Pb   -2.0121088    3.4850748  -13.0130093 
Pb    4.0242176    0.0000000  -13.0130093 
Pb    4.0242176   -3.4850748  -13.0130093 
Pb    4.0242176    3.4850748  -13.0130093 
Pb   -5.0302722   -1.7425373  -13.0130093 
Pb   -5.0302722    1.7425373  -13.0130093 
Pb    0.0000000    0.0000000  -10.1674577 
Pb    0.0000000   -3.4850758  -10.1674577 
Pb    0.0000000    3.4850758  -10.1674577 
Pb   -3.0181641   -1.7425378  -10.1674577 
Pb   -3.0181641    1.7425378  -10.1674577 
Pb    3.0181641   -1.7425378  -10.1674577 
Pb    3.0181641    1.7425378  -10.1674577 
Pb    3.0181641   -5.2276136  -10.1674577 
Pb    3.0181641    5.2276136  -10.1674577 
Pb   -6.0363283    0.0000000  -10.1674577 
Pb   -1.1119450   -1.8751389   -7.0293525 
Pb   -0.9771986    1.7481534   -7.0400852 
Pb    2.0223186   -0.0933126   -6.9916598 
Pb    1.9201900   -3.4410058   -7.4611334 
Pb    1.9794938    3.3315642   -7.5506162 
Pb   -3.9093145    0.0041715   -7.4883897 
Pb    0.9538568   -2.1481324   -4.3003500 
Pb    0.5899794    1.1117934   -4.1783173 
Pb   -1.9173473   -0.7612099   -3.6383390 
Pb    0.2902561   -2.1759572   -1.1610747 
Pb    1.6129041    2.6296029   -1.6563702 
Pb   -2.6635415   -1.5762830   -0.5462473 
Pb   -0.9075852    1.1275293   -0.4638178 
Pb    2.3754049    0.0325790   -0.1684880 
Pb    1.1088183   -1.6988093    2.5596020 
Pb    0.9799487    1.7598335    2.4912777 
Pb   -2.0806890   -0.0177891    2.6013973 
Pb   -1.8703344   -3.3853661    2.9746833 
Pb   -1.9808670    3.3902747    3.0351274 
Pb    3.9375496    0.0341601    2.9995645 
Pb    0.0000000    0.0000000    5.6927352 
Pb    0.0000000   -3.4850758    5.6927352 
Pb    0.0000000    3.4850758    5.6927352 
Pb   -3.0181641   -1.7425378    5.6927352 
Pb   -3.0181641    1.7425378    5.6927352 
Pb    3.0181641   -1.7425378    5.6927352 
Pb    3.0181641    1.7425378    5.6927352 
Pb   -3.0181641   -5.2276136    5.6927352 
Pb   -3.0181641    5.2276136    5.6927352 
Pb    6.0363283    0.0000000    5.6927352 
Pb   -1.0060544   -1.7425373    8.5382868 
Pb   -1.0060544    1.7425373    8.5382868 
Pb   -1.0060544   -5.2276121    8.5382868 
Pb   -1.0060544    5.2276121    8.5382868 
Pb    2.0121088    0.0000000    8.5382868 
Pb    2.0121088   -3.4850748    8.5382868 
Pb    2.0121088    3.4850748    8.5382868 
Pb   -4.0242176    0.0000000    8.5382868 
Pb   -4.0242176   -3.4850748    8.5382868 
Pb   -4.0242176    3.4850748    8.5382868 
Pb    5.0302722   -1.7425373    8.5382868 
Pb    5.0302722    1.7425373    8.5382868 
64
Energy = -223.8377769265
Pb    1.0060544   -1.7425373  -13.0130093 
Pb    1.0060544    1.7425373  -13.0130093 
Pb    1.0060544   -5.2276121  -13.0130093 
Pb    1.0060544    5.2276121  -13.0130093 
Pb   -2.0121088    0.0000000  -13.0130093 
Pb   -2.0121088   -3.4850748  -13.0130093 
Pb   -2.0121088    3.4850748  -13.0130093 
Pb    4.0242176    0.0000000  -13.0130093 
Pb    4.0242176   -3.4850748  -13.0130093 
Pb    4.0242176    3.4850748  -13.0130093 
Pb   -5.0302722   -1.7425373  -13.0130093 
Pb   -5.0302722    1.7425373  -13.0130093 
Pb    0.0000000    0.0000000  -10.1674577 
Pb    0.0000000   -3.4850758  -10.1674577 
Pb    0.0000000    3.4850758  -10.1674577 
Pb   -3.0181641   -1.7425378  -10.1674577 
Pb   -3.0181641    1.7425378  -10.1674577 
Pb    3.0181641   -1.7425378  -10.1674577 
Pb    3.0181641    1.7425378  -10.1674577 
Pb    3.0181641   -5.2276136  -10.1674577 
Pb    3.0181641    5.2276136  -10.1674577 
Pb   -6.0363283    0.0000000  -10.1674577 
Pb   -1.0361884   -1.7585705   -7.0669641 
Pb   -1.0560666    1.9227994   -7.1294187 
Pb    2.1394277    0.0199698   -7.1437464 
Pb    1.9553515   -3.3790003   -7.5058783 
Pb    1.9833139    3.4146324   -7.4634221 
Pb   -3.8956539    0.0358297   -7.4662687 
Pb    0.9647249   -1.5579014   -4.3836917 
Pb    1.0387847    1.8124048   -4.4388975 
Pb   -1.9000635    0.2041244   -4.3925581 
Pb   -0.0078157   -0.0916292   -1.5955375 
Pb    0.5370707    3.2165645   -1.4536009 
Pb   -0.8256290   -2.6696119    0.1469832 
Pb   -2.2225414    2.0672644   -0.3989845 
Pb    2.6433302    1.1689902   -0.1745217 
Pb    1.0795227   -1.1874588    2.1745926 
Pb    0.5348834    2.1743026    2.0191203 
Pb   -2.1253158   -0.0552244    2.2545162 
Pb   -2.1275005   -3.6351841    2.8027472 
Pb   -2.3479768    3.4530828    2.6403176 
Pb    4.0026512    0.1309960    2.7417677 
Pb    0.0000000    0.0000000    5.3731121 
Pb    0.0000000   -3.4850758    5.3731121 
Pb    0.0000000    3.4850758    5.3731121 
Pb   -3.0181641   -1.7425378    5.3731121 
Pb   -3.0181641    1.7425378    5.3731121 
Pb    3.0181641   -1.7425378    5.3731121 
Pb    3.0181641    1.7425378    5.3731121 
Pb   -3.0181641   -5.2276136    5.3731121 
Pb   -3.0181641    5.2276136    5.3731121 
Pb    6.0363283    0.0000000    5.3731121 
Pb   -1.0060544   -1.7425373    8.2186638 
Pb   -1.0060544    1.7425373    8.2186638 
Pb   -1.0060544   -5.2276121    8.2186638 
Pb   -1.0060544    5.2276121    8.2186638 
Pb    2.0121088    0.0000000    8.2186638 
Pb    2.0121088   -3.4850748    8.2186638 
Pb    2.0121088    3.4850748    8.2186638 
Pb   -4.0242176    0.0000000    8.2186638 
Pb   -4.0242176   -3.4850748    8.2186638 
Pb   -4.0242176    3.4850748    8.2186638 
Pb    5.0302722   -1.7425373    8.2186638 
Pb    5.0302722    1.7425373    8.2186638 
